Version8/Distrib/Examples/ADiakoptics/TnDSystem/Transmission/IEEE_30_VLN_Node.Txt

LINE-GROUND and LINE-LINE VOLTAGES BY BUS & NODE

Bus                            Node    VLN (kV)   Angle      pu     Base kV    Node-Node   VLL (kV)  Angle      pu

B1 ........................... 1       80.782 /_    0.0      1.06   132.000        1-2     139.92 /_   30.0      1.06
   -                           2       80.782 /_ -120.0      1.06   132.000        2-3     139.92 /_  -90.0      1.06
   -                           3       80.782 /_  120.0      1.06   132.000        3-1     139.92 /_  150.0      1.06
B2 ........................... 1       79.638 /_   -3.1     1.045   132.000        1-2     137.93 /_   26.9    1.0449
   -                           2       79.633 /_ -123.1    1.0449   132.000        2-3     137.94 /_  -93.1     1.045
   -                           3       79.649 /_  116.9    1.0451   132.000        3-1     137.95 /_  146.9    1.0451
B3 ........................... 1       77.969 /_   -5.3    1.0231   132.000        1-2     135.04 /_   24.7     1.023
   -                           2       77.964 /_ -125.3     1.023   132.000        2-3     135.05 /_  -95.3    1.0231
   -                           3       77.983 /_  114.7    1.0233   132.000        3-1     135.06 /_  144.7    1.0232
B4 ........................... 1       77.275 /_   -6.5     1.014   132.000        1-2     133.84 /_   23.5    1.0139
   -                           2       77.269 /_ -126.5    1.0139   132.000        2-3     133.85 /_  -96.5     1.014
   -                           3       77.292 /_  113.5    1.0142   132.000        3-1     133.86 /_  143.5    1.0141
B5 ........................... 1       76.965 /_   -6.0    1.0099   132.000        1-2     133.28 /_   24.0    1.0097
   -                           2       76.945 /_ -126.0    1.0096   132.000        2-3     133.31 /_  -96.0    1.0099
   -                           3       76.994 /_  114.0    1.0103   132.000        3-1     133.35 /_  144.0    1.0102
B6 ........................... 1       77.049 /_   -7.6     1.011   132.000        1-2     133.44 /_   22.4    1.0109
   -                           2       77.041 /_ -127.6    1.0109   132.000        2-3     133.46 /_  -97.6     1.011
   -                           3       77.068 /_  112.4    1.0113   132.000        3-1     133.48 /_  142.4    1.0112
B7 ........................... 1       76.345 /_   -7.5    1.0018   132.000        1-2     132.22 /_   22.5    1.0016
   -                           2       76.331 /_ -127.5    1.0016   132.000        2-3     132.24 /_  -97.5    1.0018
   -                           3       76.369 /_  112.5    1.0021   132.000        3-1     132.26 /_  142.5     1.002
B8 ........................... 1       76.934 /_   -8.3    1.0095   132.000        1-2     133.24 /_   21.7    1.0094
   -                           2       76.926 /_ -128.3    1.0094   132.000        2-3     133.26 /_  -98.3    1.0095
   -                           3       76.953 /_  111.7    1.0097   132.000        3-1     133.28 /_  141.7    1.0097
B12 .......................... 1       20.157 /_  -11.9    1.0579    33.000        1-2      34.91 /_   18.1    1.0579
   -                           2       20.155 /_ -131.9    1.0578    33.000        2-3     34.913 /_ -101.9     1.058
   -                           3       20.161 /_  108.1    1.0582    33.000        3-1     34.918 /_  138.1    1.0581
B14 .......................... 1       19.873 /_  -12.8    1.0431    33.000        1-2     34.419 /_   17.2     1.043
   -                           2       19.871 /_ -132.8     1.043    33.000        2-3     34.423 /_ -102.7    1.0431
   -                           3       19.878 /_  107.3    1.0433    33.000        3-1     34.428 /_  137.2    1.0433
B15 .......................... 1       19.789 /_  -12.8    1.0387    33.000        1-2     34.274 /_   17.2    1.0386
   -                           2       19.787 /_ -132.8    1.0386    33.000        2-3     34.277 /_ -102.8    1.0387
   -                           3       19.795 /_  107.2    1.0389    33.000        3-1     34.283 /_  137.2    1.0389
B16 .......................... 1       19.921 /_  -12.4    1.0456    33.000        1-2     34.501 /_   17.6    1.0455
   -                           2       19.919 /_ -132.4    1.0455    33.000        2-3     34.505 /_ -102.4    1.0456
   -                           3       19.926 /_  107.6    1.0458    33.000        3-1      34.51 /_  137.6    1.0458
B17 .......................... 1       19.835 /_  -12.6     1.041    33.000        1-2     34.352 /_   17.4     1.041
   -                           2       19.832 /_ -132.6    1.0409    33.000        2-3     34.355 /_ -102.6    1.0411
   -                           3        19.84 /_  107.4    1.0413    33.000        3-1     34.361 /_  137.4    1.0412
B18 .......................... 1        19.61 /_  -13.4    1.0292    33.000        1-2     33.963 /_   16.6    1.0292
   -                           2       19.608 /_ -133.4    1.0291    33.000        2-3     33.966 /_ -103.3    1.0293
   -                           3       19.615 /_  106.7    1.0295    33.000        3-1     33.972 /_  136.6    1.0294
B19 .......................... 1       19.563 /_  -13.5    1.0268    33.000        1-2     33.882 /_   16.5    1.0267
   -                           2       19.561 /_ -133.5    1.0267    33.000        2-3     33.885 /_ -103.5    1.0268
   -                           3       19.568 /_  106.5    1.0271    33.000        3-1     33.891 /_  136.5     1.027
B20 .......................... 1       19.641 /_  -13.3    1.0309    33.000        1-2     34.017 /_   16.7    1.0308
   -                           2       19.639 /_ -133.3    1.0308    33.000        2-3     34.021 /_ -103.3    1.0309
   -                           3       19.647 /_  106.7    1.0312    33.000        3-1     34.026 /_  136.7    1.0311
B10 .......................... 1       19.935 /_  -12.4    1.0463    33.000        1-2     34.526 /_   17.6    1.0463
   -                           2       19.933 /_ -132.4    1.0462    33.000        2-3      34.53 /_ -102.4    1.0464
   -                           3        19.94 /_  107.6    1.0466    33.000        3-1     34.535 /_  137.6    1.0465
B21 .......................... 1       19.699 /_  -12.8    1.0339    33.000        1-2     34.117 /_   17.2    1.0339
   -                           2       19.697 /_ -132.8    1.0338    33.000        2-3     34.121 /_ -102.8     1.034
   -                           3       19.704 /_  107.2    1.0342    33.000        3-1     34.126 /_  137.2    1.0341
B22 .......................... 1       19.709 /_  -12.8    1.0344    33.000        1-2     34.134 /_   17.2    1.0344
   -                           2       19.707 /_ -132.8    1.0343    33.000        2-3     34.138 /_ -102.8    1.0345
   -                           3       19.714 /_  107.2    1.0347    33.000        3-1     34.144 /_  137.2    1.0347
B23 .......................... 1        19.59 /_  -13.1    1.0282    33.000        1-2     33.929 /_   16.9    1.0282
   -                           2       19.588 /_ -133.1    1.0281    33.000        2-3     33.933 /_ -103.1    1.0283
   -                           3       19.596 /_  106.9    1.0285    33.000        3-1     33.938 /_  136.9    1.0284
B24 .......................... 1       19.485 /_  -13.2    1.0227    33.000        1-2     33.746 /_   16.8    1.0226
   -                           2       19.482 /_ -133.2    1.0226    33.000        2-3     33.749 /_ -103.2    1.0227
   -                           3        19.49 /_  106.8     1.023    33.000        3-1     33.755 /_  136.8    1.0229
B25 .......................... 1       19.404 /_  -12.7    1.0184    33.000        1-2     33.606 /_   17.3    1.0184
   -                           2       19.402 /_ -132.7    1.0183    33.000        2-3      33.61 /_ -102.7    1.0185
   -                           3       19.409 /_  107.3    1.0187    33.000        3-1     33.615 /_  137.3    1.0187
B26 .......................... 1       19.067 /_  -13.1    1.0008    33.000        1-2     33.024 /_   16.9    1.0007
   -                           2       19.065 /_ -133.1    1.0007    33.000        2-3     33.027 /_ -103.1    1.0008
   -                           3       19.073 /_  106.9    1.0011    33.000        3-1     33.033 /_  136.9     1.001
B27 .......................... 1       19.516 /_  -12.2    1.0243    33.000        1-2     33.801 /_   17.8    1.0243
   -                           2       19.514 /_ -132.2    1.0242    33.000        2-3     33.804 /_ -102.1    1.0244
   -                           3       19.522 /_  107.9    1.0246    33.000        3-1      33.81 /_  137.8    1.0245
B29 .......................... 1       19.139 /_  -13.4    1.0045    33.000        1-2     33.147 /_   16.6    1.0044
   -                           2       19.136 /_ -133.4    1.0044    33.000        2-3      33.15 /_ -103.4    1.0045
   -                           3       19.144 /_  106.6    1.0048    33.000        3-1     33.156 /_  136.6    1.0047
B30 .......................... 1        18.92 /_  -14.3   0.99304    33.000        1-2     32.768 /_   15.7   0.99298
   -                           2       18.918 /_ -134.3   0.99293    33.000        2-3     32.772 /_ -104.2   0.99308
   -                           3       18.926 /_  105.8   0.99336    33.000        3-1     32.778 /_  135.7   0.99327
B28 .......................... 1       76.766 /_   -8.2    1.0073   132.000        1-2     132.95 /_   21.8    1.0072
   -                           2       76.758 /_ -128.2    1.0072   132.000        2-3     132.97 /_  -98.2    1.0073
   -                           3       76.786 /_  111.8    1.0076   132.000        3-1     132.99 /_  141.8    1.0075
B9 ........................... 1       0.6072 /_  -10.8    1.0517     1.000        1-2     1.0516 /_   19.2    1.0516
   -                           2      0.60714 /_ -130.8    1.0516     1.000        2-3     1.0517 /_ -100.7    1.0517
   -                           3      0.60735 /_  109.3     1.052     1.000        3-1     1.0519 /_  139.2    1.0519
B11 .......................... 1       6.8728 /_  -10.8    1.0822    11.000        1-2     11.903 /_   19.2    1.0821
   -                           2       6.8722 /_ -130.8    1.0821    11.000        2-3     11.904 /_ -100.7    1.0822
   -                           3       6.8745 /_  109.3    1.0825    11.000        3-1     11.906 /_  139.2    1.0824
B13 .......................... 1        6.805 /_  -11.9    1.0715    11.000        1-2     11.786 /_   18.1    1.0714
   -                           2       6.8043 /_ -131.9    1.0714    11.000        2-3     11.787 /_ -101.9    1.0715
   -                           3       6.8065 /_  108.1    1.0718    11.000        3-1     11.789 /_  138.1    1.0717
SOURCEBUS .................... 1       76.965 /_   -6.0    1.0099   132.000        1-2     133.28 /_   24.0    1.0097
   -                           2       76.945 /_ -126.0    1.0096   132.000        2-3     133.31 /_  -96.0    1.0099
   -                           3       76.994 /_  114.0    1.0103   132.000        3-1     133.35 /_  144.0    1.0102
_MDV_SUB_1_LSB ............... 1       7.0301 /_  -39.4     1.107    11.000        1-2     12.177 /_   -9.5     1.107
   -                           2       7.0142 /_ -159.6    1.1044    11.000        2-3     12.148 /_ -129.4    1.1044
   -                           3       7.0366 /_   80.7     1.108    11.000        3-1     12.188 /_  110.7     1.108
MDV201 ....................... 1       7.0301 /_  -39.4     1.107    11.000        1-2     12.177 /_   -9.5     1.107
   -                           2       7.0141 /_ -159.6    1.1044    11.000        2-3     12.148 /_ -129.4    1.1044
   -                           3       7.0366 /_   80.7     1.108    11.000        3-1     12.188 /_  110.7     1.108
MDV201_HN_2_793_ABC1023346_INT 1       7.0296 /_  -39.4    1.1069    11.000        1-2     12.176 /_   -9.5    1.1069
   -                           2       7.0136 /_ -159.6    1.1044    11.000        2-3     12.147 /_ -129.4    1.1043
   -                           3       7.0361 /_   80.7    1.1079    11.000        3-1     12.187 /_  110.6    1.1079
1023346 ...................... 1       7.0243 /_  -39.4     1.106    11.000        1-2     12.168 /_   -9.6    1.1062
   -                           2       7.0088 /_ -159.7    1.1036    11.000        2-3      12.14 /_ -129.4    1.1036
   -                           3       7.0329 /_   80.7    1.1074    11.000        3-1     12.179 /_  110.6    1.1072
MDV201_796USD_INT ............ 1       7.0238 /_  -39.4     1.106    11.000        1-2     12.167 /_   -9.6    1.1061
   -                           2       7.0083 /_ -159.7    1.1035    11.000        2-3     12.139 /_ -129.4    1.1036
   -                           3       7.0325 /_   80.7    1.1073    11.000        3-1     12.179 /_  110.6    1.1071
796 .......................... 1       7.0237 /_  -39.4    1.1059    11.000        1-2     12.167 /_   -9.6    1.1061
   -                           2       7.0081 /_ -159.7    1.1035    11.000        2-3     12.139 /_ -129.4    1.1035
   -                           3       7.0324 /_   80.7    1.1073    11.000        3-1     12.178 /_  110.6    1.1071
791 .......................... 1       7.0167 /_  -39.5    1.1048    11.000        1-2     12.156 /_   -9.6    1.1051
   -                           2       7.0018 /_ -159.7    1.1025    11.000        2-3      12.13 /_ -129.5    1.1027
   -                           3       7.0282 /_   80.6    1.1067    11.000        3-1     12.168 /_  110.5    1.1062
788 .......................... 1        7.009 /_  -39.5    1.1036    11.000        1-2     12.144 /_   -9.7     1.104
   -                           2       6.9947 /_ -159.8    1.1014    11.000        2-3      12.12 /_ -129.6    1.1018
   -                           3       7.0235 /_   80.5    1.1059    11.000        3-1     12.156 /_  110.5    1.1051
782 .......................... 1       7.0009 /_  -39.6    1.1024    11.000        1-2     12.132 /_   -9.8    1.1029
   -                           2       6.9869 /_ -159.9    1.1002    11.000        2-3     12.109 /_ -129.6    1.1008
   -                           3       7.0194 /_   80.5    1.1053    11.000        3-1     12.145 /_  110.4    1.1041
783 .......................... 1       6.9941 /_  -39.6    1.1013    11.000        1-2     12.122 /_   -9.8     1.102
   -                           2       6.9804 /_ -159.9    1.0991    11.000        2-3       12.1 /_ -129.7       1.1
   -                           3        7.016 /_   80.4    1.1047    11.000        3-1     12.135 /_  110.3    1.1031
861 .......................... 1       6.9872 /_  -39.7    1.1002    11.000        1-2     12.111 /_   -9.9     1.101
   -                           2       6.9738 /_ -160.0    1.0981    11.000        2-3     12.091 /_ -129.7    1.0992
   -                           3       7.0124 /_   80.3    1.1042    11.000        3-1     12.124 /_  110.3    1.1022
63685 ........................ 1       6.9785 /_  -39.7    1.0988    11.000        1-2     12.098 /_   -9.9    1.0998
   -                           2       6.9654 /_ -160.1    1.0968    11.000        2-3      12.08 /_ -129.8    1.0982
   -                           3        7.008 /_   80.3    1.1035    11.000        3-1     12.112 /_  110.2    1.1011
63638 ........................ 1       6.9676 /_  -39.8    1.0971    11.000        1-2     12.081 /_  -10.0    1.0983
   -                           2       6.9555 /_ -160.2    1.0952    11.000        2-3     12.066 /_ -129.9    1.0969
   -                           3       7.0015 /_   80.2    1.1025    11.000        3-1     12.096 /_  110.1    1.0996
1010727 ...................... 1       6.9676 /_  -39.8    1.0971    11.000
784 .......................... 1       6.9655 /_  -39.8    1.0968    11.000
X_784 ........................ 1      0.23022 /_  -40.1   0.39875     1.000
X_784_1 ...................... 1       0.2297 /_  -40.1   0.39784     1.000
X_784_2 ...................... 1       0.2297 /_  -40.1   0.39784     1.000
785 .......................... 1       6.9642 /_  -39.8    1.0966    11.000
X_785 ........................ 1       0.2312 /_  -40.0   0.40046     1.000
X_785_1 ...................... 1      0.23071 /_  -40.0   0.39961     1.000
790 .......................... 1       6.9629 /_  -39.8    1.0964    11.000
X_790 ........................ 1      0.22963 /_  -40.2   0.39774     1.000
X_790_1 ...................... 1      0.22898 /_  -40.2    0.3966     1.000
X_790_2 ...................... 1      0.22898 /_  -40.2    0.3966     1.000
798 .......................... 1       6.9618 /_  -39.8    1.0962    11.000
808 .......................... 1       6.9608 /_  -39.8     1.096    11.000
X_808 ........................ 1      0.23063 /_  -40.0   0.39947     1.000
X_808_1 ...................... 1      0.22989 /_  -40.0   0.39819     1.000
814 .......................... 1       6.9602 /_  -39.8    1.0959    11.000
X_814 ........................ 1      0.22759 /_  -40.5    0.3942     1.000
X_814_1 ...................... 1      0.22683 /_  -40.4   0.39287     1.000
X_814_2 ...................... 1      0.22683 /_  -40.4   0.39287     1.000
X_814_3 ...................... 1      0.22683 /_  -40.4   0.39287     1.000
827 .......................... 1       6.9592 /_  -39.8    1.0958    11.000
X_827 ........................ 1      0.23109 /_  -40.0   0.40026     1.000
X_827_1 ...................... 1      0.23063 /_  -40.0   0.39946     1.000
835 .......................... 1       6.9583 /_  -39.8    1.0956    11.000
X_835 ........................ 1      0.23008 /_  -40.1   0.39851     1.000
X_835_1 ...................... 1      0.22958 /_  -40.1   0.39765     1.000
X_835_2 ...................... 1      0.22958 /_  -40.1   0.39765     1.000
842 .......................... 1       6.9575 /_  -39.8    1.0955    11.000
X_842 ........................ 1      0.23066 /_  -40.0   0.39952     1.000
X_842_1 ...................... 1      0.23029 /_  -40.0   0.39888     1.000
844 .......................... 1       6.9568 /_  -39.8    1.0954    11.000
X_844 ........................ 1      0.22983 /_  -40.2   0.39808     1.000
X_844_1 ...................... 1      0.22929 /_  -40.1   0.39713     1.000
X_844_2 ...................... 1      0.22929 /_  -40.1   0.39713     1.000
845 .......................... 1       6.9568 /_  -39.8    1.0954    11.000
843 .......................... 1        6.956 /_  -39.8    1.0953    11.000
X_843 ........................ 1      0.23004 /_  -40.1   0.39844     1.000
X_843_1 ...................... 1      0.22907 /_  -40.1   0.39676     1.000
838 .......................... 1       6.9555 /_  -39.8    1.0952    11.000
X_838 ........................ 1      0.22837 /_  -40.3   0.39555     1.000
X_838_1 ...................... 1      0.22777 /_  -40.3    0.3945     1.000
X_838_2 ...................... 1      0.22777 /_  -40.3    0.3945     1.000
X_838_3 ...................... 1      0.22777 /_  -40.3    0.3945     1.000
832 .......................... 1        6.955 /_  -39.8    1.0951    11.000
X_832 ........................ 1      0.22963 /_  -40.2   0.39774     1.000
X_832_1 ...................... 1      0.22924 /_  -40.2   0.39706     1.000
X_832_2 ...................... 1      0.22924 /_  -40.2   0.39706     1.000
X_832_3 ...................... 1      0.22924 /_  -40.2   0.39706     1.000
828 .......................... 1       6.9547 /_  -39.8    1.0951    11.000
X_828 ........................ 1      0.22896 /_  -40.3   0.39657     1.000
X_828_1 ...................... 1      0.22845 /_  -40.3   0.39568     1.000
X_828_2 ...................... 1      0.22845 /_  -40.3   0.39568     1.000
X_828_3 ...................... 1      0.22845 /_  -40.3   0.39568     1.000
819 .......................... 1       6.9545 /_  -39.8     1.095    11.000
X_819 ........................ 1       0.2284 /_  -40.3    0.3956     1.000
X_819_1 ...................... 1      0.22781 /_  -40.3   0.39457     1.000
X_819_2 ...................... 1      0.22781 /_  -40.3   0.39457     1.000
X_819_3 ...................... 1      0.22781 /_  -40.3   0.39457     1.000
820 .......................... 1       6.9544 /_  -39.8     1.095    11.000
X_820 ........................ 1      0.23006 /_  -40.1   0.39848     1.000
X_820_1 ...................... 1       0.2296 /_  -40.1   0.39767     1.000
X_820_2 ...................... 1       0.2296 /_  -40.1   0.39767     1.000
1010729 ...................... 1       6.9618 /_  -39.8    1.0962    11.000
1010728 ...................... 1       6.9617 /_  -39.8    1.0962    11.000
1160489 ...................... 1       6.9616 /_  -39.8    1.0962    11.000
MDV201_795ELB_INT ............ 1       6.9616 /_  -39.8    1.0962    11.000
795 .......................... 1       6.9616 /_  -39.8    1.0962    11.000
X_795 ........................ 1      0.23136 /_  -40.0   0.40073     1.000
X_795_1 ...................... 1      0.23074 /_  -39.9   0.39965     1.000
X_795_2 ...................... 1      0.23074 /_  -39.9   0.39965     1.000
63639 ........................ 1       6.9632 /_  -39.8    1.0964    11.000        1-2     12.074 /_  -10.1    1.0976
   -                           2       6.9507 /_ -160.2    1.0945    11.000        2-3     12.059 /_ -130.0    1.0963
   -                           3       6.9987 /_   80.1     1.102    11.000        3-1     12.088 /_  110.0    1.0989
X_63639 ...................... 2      0.23016 /_ -160.5   0.39865     1.000
X_63639_1 .................... 2      0.22934 /_ -160.5   0.39723     1.000
63643 ........................ 1       6.9569 /_  -39.9    1.0954    11.000        1-2     12.063 /_  -10.1    1.0967
   -                           2       6.9439 /_ -160.3    1.0934    11.000        2-3      12.05 /_ -130.0    1.0955
   -                           3       6.9946 /_   80.0    1.1014    11.000        3-1     12.078 /_  110.0     1.098
X_63643 ...................... 2      0.23003 /_ -160.5   0.39843     1.000
X_63643_1 .................... 2      0.22965 /_ -160.5   0.39776     1.000
X_63643_2 .................... 2      0.22965 /_ -160.5   0.39776     1.000
63645 ........................ 1       6.9506 /_  -39.9    1.0944    11.000        1-2     12.053 /_  -10.2    1.0957
   -                           2        6.937 /_ -160.4    1.0923    11.000        2-3     12.041 /_ -130.1    1.0946
   -                           3       6.9904 /_   80.0    1.1007    11.000        3-1     12.068 /_  109.9    1.0971
X_63645 ...................... 2      0.22917 /_ -160.7   0.39693     1.000
X_63645_1 .................... 2      0.22861 /_ -160.7   0.39596     1.000
X_63645_2 .................... 2      0.22861 /_ -160.7   0.39596     1.000
63655 ........................ 1       6.9443 /_  -40.0    1.0934    11.000        1-2     12.043 /_  -10.2    1.0948
   -                           2       6.9302 /_ -160.4    1.0912    11.000        2-3     12.032 /_ -130.1    1.0938
   -                           3       6.9863 /_   79.9    1.1001    11.000        3-1     12.057 /_  109.9    1.0961
X_63655 ...................... 2      0.22892 /_ -160.8    0.3965     1.000
X_63655_1 .................... 2      0.22835 /_ -160.8   0.39551     1.000
X_63655_2 .................... 2      0.22835 /_ -160.8   0.39551     1.000
63657 ........................ 1       6.9369 /_  -40.0    1.0923    11.000        1-2     12.031 /_  -10.3    1.0937
   -                           2       6.9221 /_ -160.5    1.0899    11.000        2-3     12.021 /_ -130.2    1.0928
   -                           3       6.9822 /_   79.8    1.0994    11.000        3-1     12.046 /_  109.8     1.095
X_63657 ...................... 2      0.23034 /_ -160.6   0.39896     1.000
X_63657_1 .................... 2      0.23001 /_ -160.6   0.39839     1.000
63658 ........................ 1       6.9336 /_  -40.0    1.0918    11.000        1-2     12.027 /_  -10.3    1.0933
   -                           2       6.9182 /_ -160.5    1.0893    11.000        2-3     12.017 /_ -130.2    1.0924
   -                           3        6.982 /_   79.8    1.0994    11.000        3-1     12.042 /_  109.8    1.0947
X_63658 ...................... 2      0.22727 /_ -161.0   0.39364     1.000
X_63658_1 .................... 2      0.22662 /_ -161.0   0.39251     1.000
63659 ........................ 1        6.929 /_  -40.1     1.091    11.000        1-2      12.02 /_  -10.4    1.0928
   -                           2       6.9128 /_ -160.6    1.0885    11.000        2-3      12.01 /_ -130.3    1.0918
   -                           3       6.9816 /_   79.8    1.0993    11.000        3-1     12.036 /_  109.7    1.0942
MDV201_107109USD_INT ......... 1       6.9287 /_  -40.1     1.091    11.000        1-2      12.02 /_  -10.4    1.0927
   -                           2       6.9125 /_ -160.6    1.0884    11.000        2-3      12.01 /_ -130.3    1.0918
   -                           3       6.9813 /_   79.8    1.0993    11.000        3-1     12.036 /_  109.7    1.0942
107109 ....................... 1       6.9286 /_  -40.1     1.091    11.000        1-2      12.02 /_  -10.4    1.0927
   -                           2       6.9124 /_ -160.6    1.0884    11.000        2-3      12.01 /_ -130.3    1.0918
   -                           3       6.9812 /_   79.8    1.0993    11.000        3-1     12.036 /_  109.7    1.0941
63662 ........................ 1       6.9241 /_  -40.1    1.0903    11.000        1-2     12.013 /_  -10.4    1.0921
   -                           2       6.9085 /_ -160.7    1.0878    11.000        2-3     12.004 /_ -130.3    1.0913
   -                           3       6.9797 /_   79.7     1.099    11.000        3-1      12.03 /_  109.7    1.0936
63663 ........................ 1       6.9214 /_  -40.1    1.0898    11.000        1-2     12.009 /_  -10.4    1.0917
   -                           2       6.9059 /_ -160.7    1.0874    11.000        2-3     12.001 /_ -130.3     1.091
   -                           3       6.9782 /_   79.7    1.0988    11.000        3-1     12.026 /_  109.7    1.0933
X_63663 ...................... 1      0.22934 /_  -40.3   0.39722     1.000
X_63663_1 .................... 1      0.22861 /_  -40.3   0.39596     1.000
63665 ........................ 1       6.9186 /_  -40.1    1.0894    11.000        1-2     12.005 /_  -10.4    1.0913
   -                           2       6.9034 /_ -160.7     1.087    11.000        2-3     11.997 /_ -130.3    1.0906
   -                           3       6.9764 /_   79.7    1.0985    11.000        3-1     12.022 /_  109.6    1.0929
X_63665 ...................... 1      0.22765 /_  -40.5    0.3943     1.000
X_63665_1 .................... 1      0.22688 /_  -40.5   0.39296     1.000
X_63665_2 .................... 1      0.22688 /_  -40.5   0.39296     1.000
63680 ........................ 1       6.9166 /_  -40.1    1.0891    11.000        1-2     12.001 /_  -10.5     1.091
   -                           2       6.9015 /_ -160.7    1.0867    11.000        2-3     11.994 /_ -130.3    1.0904
   -                           3       6.9751 /_   79.7    1.0983    11.000        3-1     12.019 /_  109.6    1.0926
X_63680 ...................... 3      0.23025 /_   79.4   0.39881     1.000
X_63680_1 .................... 3      0.22957 /_   79.4   0.39763     1.000
63681 ........................ 1       6.9155 /_  -40.1    1.0889    11.000        1-2     11.999 /_  -10.5    1.0908
   -                           2       6.8989 /_ -160.7    1.0863    11.000        2-3     11.992 /_ -130.3    1.0901
   -                           3       6.9746 /_   79.7    1.0982    11.000        3-1     12.017 /_  109.6    1.0924
X_63681 ...................... 1       0.2288 /_  -40.4   0.39629     1.000
X_63681_1 .................... 1      0.22832 /_  -40.4   0.39546     1.000
X_63681_2 .................... 1      0.22832 /_  -40.4   0.39546     1.000
X_63681_3 .................... 1      0.22832 /_  -40.4   0.39546     1.000
63684 ........................ 1       6.9143 /_  -40.1    1.0887    11.000        1-2     11.997 /_  -10.5    1.0906
   -                           2       6.8957 /_ -160.7    1.0858    11.000        2-3     11.988 /_ -130.4    1.0898
   -                           3       6.9741 /_   79.6    1.0981    11.000        3-1     12.014 /_  109.6    1.0922
1144263 ...................... 1       6.9143 /_  -40.1    1.0887    11.000
X_1144263 .................... 1      0.22626 /_  -40.7    0.3919     1.000
X_1144263_1 .................. 1      0.22571 /_  -40.7   0.39095     1.000
X_1144263_2 .................. 1      0.22571 /_  -40.7   0.39095     1.000
X_1144263_3 .................. 1      0.22571 /_  -40.7   0.39095     1.000
X_1144263_4 .................. 1      0.22571 /_  -40.7   0.39095     1.000
1144264 ...................... 1       6.9139 /_  -40.1    1.0887    11.000
X_1144264 .................... 1      0.22554 /_  -40.8   0.39065     1.000
X_1144264_1 .................. 1       0.2249 /_  -40.8   0.38954     1.000
X_1144264_2 .................. 1       0.2249 /_  -40.8   0.38954     1.000
X_1144264_3 .................. 1       0.2249 /_  -40.8   0.38954     1.000
X_1144264_4 .................. 1       0.2249 /_  -40.8   0.38954     1.000
63675 ........................ 1       6.9138 /_  -40.1    1.0886    11.000
X_63675 ...................... 1      0.22601 /_  -40.8   0.39146     1.000
X_63675_1 .................... 1      0.22543 /_  -40.8   0.39046     1.000
X_63675_2 .................... 1      0.22543 /_  -40.8   0.39046     1.000
X_63675_3 .................... 1      0.22543 /_  -40.8   0.39046     1.000
X_63675_4 .................... 1      0.22543 /_  -40.8   0.39046     1.000
63682 ........................ 1       6.9137 /_  -40.1    1.0886    11.000        1-2     11.995 /_  -10.5    1.0905
...